plots/csv/rotor_angle_dev_bus09_julia.csv
t_s,rotor_angle_dev_rad,bus_voltage_angle_dev_rad,angle_source,angle_is_exact_bus_voltage
0.0,0.0,0.0,Vmag_get_voltage_magnitude_series__angle_get_voltage_angle_series,true
0.01,1.4641066137244258e-16,1.4641066137244258e-16,Vmag_get_voltage_magnitude_series__angle_get_voltage_angle_series,true
0.02,9.922618282587306e-17,9.922618282587306e-17,Vmag_get_voltage_magnitude_series__angle_get_voltage_angle_series,true
0.03,-7.077671781985575e-17,-7.077671781985575e-17,Vmag_get_voltage_magnitude_series__angle_get_voltage_angle_series,true
0.04,9.298117831235833e-17,9.298117831235833e-17,Vmag_get_voltage_magnitude_series__angle_get_voltage_angle_series,true
0.05,7.355227538141419e-17,7.355227538141419e-17,Vmag_get_voltage_magnitude_series__angle_get_voltage_angle_series,true
0.06,6.938893903841013e-19,6.938893903841013e-19,Vmag_get_voltage_magnitude_series__angle_get_voltage_angle_series,true
0.07,4.6490589156172885e-17,4.6490589156172885e-17,Vmag_get_voltage_magnitude_series__angle_get_voltage_angle_series,true
0.08,-7.355227538141399e-17,-7.355227538141399e-17,Vmag_get_voltage_magnitude_series__angle_get_voltage_angle_series,true
0.09,5.0653925498513004e-17,5.0653925498513004e-17,Vmag_get_voltage_magnitude_series__angle_get_voltage_angle_series,true
0.1,-1.734723475976807e-17,-1.734723475976807e-17,Vmag_get_voltage_magnitude_series__angle_get_voltage_angle_series,true
0.11,-0.0001870666814020548,-0.0001870666814020548,Vmag_get_voltage_magnitude_series__angle_get_voltage_angle_series,true
0.12,-0.0005744670797239659,-0.0005744670797239659,Vmag_get_voltage_magnitude_series__angle_get_voltage_angle_series,true
0.13,-0.0005039877460578662,-0.0005039877460578662,Vmag_get_voltage_magnitude_series__angle_get_voltage_angle_series,true
0.14,-0.0005134424589944039,-0.0005134424589944039,Vmag_get_voltage_magnitude_series__angle_get_voltage_angle_series,true
0.15,-0.0005332960156677569,-0.0005332960156677569,Vmag_get_voltage_magnitude_series__angle_get_voltage_angle_series,true
0.16,-0.0005703025729264111,-0.0005703025729264111,Vmag_get_voltage_magnitude_series__angle_get_voltage_angle_series,true
0.17,-0.0006171232745319745,-0.0006171232745319745,Vmag_get_voltage_magnitude_series__angle_get_voltage_angle_series,true
0.18,-0.0006721260689239827,-0.0006721260689239827,Vmag_get_voltage_magnitude_series__angle_get_voltage_angle_series,true
0.19,-0.0007336705144182263,-0.0007336705144182263,Vmag_get_voltage_magnitude_series__angle_get_voltage_angle_series,true
0.2,-0.0008005461920742863,-0.0008005461920742863,Vmag_get_voltage_magnitude_series__angle_get_voltage_angle_series,true
0.21,-0.0008719390695427783,-0.0008719390695427783,Vmag_get_voltage_magnitude_series__angle_get_voltage_angle_series,true
0.22,-0.0009473635405016524,-0.0009473635405016524,Vmag_get_voltage_magnitude_series__angle_get_voltage_angle_series,true
0.23,-0.0010264392539020284,-0.0010264392539020284,Vmag_get_voltage_magnitude_series__angle_get_voltage_angle_series,true
0.24,-0.0011088260417444987,-0.0011088260417444987,Vmag_get_voltage_magnitude_series__angle_get_voltage_angle_series,true
0.25,-0.0011943150991553279,-0.0011943150991553279,Vmag_get_voltage_magnitude_series__angle_get_voltage_angle_series,true
0.26,-0.0012827412209041973,-0.0012827412209041973,Vmag_get_voltage_magnitude_series__angle_get_voltage_angle_series,true
0.27,-0.001373989356179322,-0.001373989356179322,Vmag_get_voltage_magnitude_series__angle_get_voltage_angle_series,true
0.28,-0.001467983619138139,-0.001467983619138139,Vmag_get_voltage_magnitude_series__angle_get_voltage_angle_series,true
0.29,-0.001564667099887267,-0.001564667099887267,Vmag_get_voltage_magnitude_series__angle_get_voltage_angle_series,true
0.3,-0.0016640067232245412,-0.0016640067232245412,Vmag_get_voltage_magnitude_series__angle_get_voltage_angle_series,true
0.31,-0.0017659720760785777,-0.0017659720760785777,Vmag_get_voltage_magnitude_series__angle_get_voltage_angle_series,true
0.32,-0.0018705377318971772,-0.0018705377318971772,Vmag_get_voltage_magnitude_series__angle_get_voltage_angle_series,true
0.33,-0.0019776726879209123,-0.0019776726879209123,Vmag_get_voltage_magnitude_series__angle_get_voltage_angle_series,true
0.34,-0.002087336726230359,-0.002087336726230359,Vmag_get_voltage_magnitude_series__angle_get_voltage_angle_series,true
0.35,-0.002199477786791944,-0.002199477786791944,Vmag_get_voltage_magnitude_series__angle_get_voltage_angle_series,true
0.36,-0.002314026437630467,-0.002314026437630467,Vmag_get_voltage_magnitude_series__angle_get_voltage_angle_series,true
0.37,-0.002430898026310438,-0.002430898026310438,Vmag_get_voltage_magnitude_series__angle_get_voltage_angle_series,true
0.38,-0.0025499878642780715,-0.0025499878642780715,Vmag_get_voltage_magnitude_series__angle_get_voltage_angle_series,true
0.39,-0.0026711730439069096,-0.0026711730439069096,Vmag_get_voltage_magnitude_series__angle_get_voltage_angle_series,true
0.4,-0.002794314972916154,-0.002794314972916154,Vmag_get_voltage_magnitude_series__angle_get_voltage_angle_series,true
0.41,-0.0029192549287557212,-0.0029192549287557212,Vmag_get_voltage_magnitude_series__angle_get_voltage_angle_series,true
0.42,-0.0030458223115236776,-0.0030458223115236776,Vmag_get_voltage_magnitude_series__angle_get_voltage_angle_series,true
0.43,-0.0031738316326481004,-0.0031738316326481004,Vmag_get_voltage_magnitude_series__angle_get_voltage_angle_series,true
0.44,-0.0033030869977109002,-0.0033030869977109002,Vmag_get_voltage_magnitude_series__angle_get_voltage_angle_series,true
0.45,-0.0034333840469253484,-0.0034333840469253484,Vmag_get_voltage_magnitude_series__angle_get_voltage_angle_series,true
0.46,-0.0035645104800786365,-0.0035645104800786365,Vmag_get_voltage_magnitude_series__angle_get_voltage_angle_series,true
0.47,-0.003696251116939488,-0.003696251116939488,Vmag_get_voltage_magnitude_series__angle_get_voltage_angle_series,true
0.48,-0.003828387030162698,-0.003828387030162698,Vmag_get_voltage_magnitude_series__angle_get_voltage_angle_series,true
0.49,-0.00396069939115431,-0.00396069939115431,Vmag_get_voltage_magnitude_series__angle_get_voltage_angle_series,true
0.5,-0.0040929703236056904,-0.0040929703236056904,Vmag_get_voltage_magnitude_series__angle_get_voltage_angle_series,true
0.51,-0.004224984475680874,-0.004224984475680874,Vmag_get_voltage_magnitude_series__angle_get_voltage_angle_series,true
0.52,-0.004356531491687777,-0.004356531491687777,Vmag_get_voltage_magnitude_series__angle_get_voltage_angle_series,true
0.53,-0.0044874056569212985,-0.0044874056569212985,Vmag_get_voltage_magnitude_series__angle_get_voltage_angle_series,true
0.54,-0.004617408539795587,-0.004617408539795587,Vmag_get_voltage_magnitude_series__angle_get_voltage_angle_series,true
0.55,-0.004746349218939982,-0.004746349218939982,Vmag_get_voltage_magnitude_series__angle_get_voltage_angle_series,true
0.56,-0.0048740450936000865,-0.0048740450936000865,Vmag_get_voltage_magnitude_series__angle_get_voltage_angle_series,true
0.57,-0.0050003233816436135,-0.0050003233816436135,Vmag_get_voltage_magnitude_series__angle_get_voltage_angle_series,true
0.58,-0.005125020450873796,-0.005125020450873796,Vmag_get_voltage_magnitude_series__angle_get_voltage_angle_series,true
0.59,-0.005247983783434953,-0.005247983783434953,Vmag_get_voltage_magnitude_series__angle_get_voltage_angle_series,true
0.6,-0.005369071223678909,-0.005369071223678909,Vmag_get_voltage_magnitude_series__angle_get_voltage_angle_series,true
0.61,-0.005488151760912579,-0.005488151760912579,Vmag_get_voltage_magnitude_series__angle_get_voltage_angle_series,true
0.62,-0.0056051059467803165,-0.0056051059467803165,Vmag_get_voltage_magnitude_series__angle_get_voltage_angle_series,true
0.63,-0.005719825458467964,-0.005719825458467964,Vmag_get_voltage_magnitude_series__angle_get_voltage_angle_series,true
0.64,-0.005832213855282868,-0.005832213855282868,Vmag_get_voltage_magnitude_series__angle_get_voltage_angle_series,true
0.65,-0.005942185926880045,-0.005942185926880045,Vmag_get_voltage_magnitude_series__angle_get_voltage_angle_series,true
0.66,-0.0060496681110139535,-0.0060496681110139535,Vmag_get_voltage_magnitude_series__angle_get_voltage_angle_series,true
0.67,-0.0061545981790645625,-0.0061545981790645625,Vmag_get_voltage_magnitude_series__angle_get_voltage_angle_series,true
0.68,-0.006256925081955856,-0.006256925081955856,Vmag_get_voltage_magnitude_series__angle_get_voltage_angle_series,true
0.69,-0.006356608882942246,-0.006356608882942246,Vmag_get_voltage_magnitude_series__angle_get_voltage_angle_series,true
0.7,-0.006453620283466901,-0.006453620283466901,Vmag_get_voltage_magnitude_series__angle_get_voltage_angle_series,true
0.71,-0.006547940634703743,-0.006547940634703743,Vmag_get_voltage_magnitude_series__angle_get_voltage_angle_series,true
0.72,-0.006639561410825724,-0.006639561410825724,Vmag_get_voltage_magnitude_series__angle_get_voltage_angle_series,true
0.73,-0.006728483919251509,-0.006728483919251509,Vmag_get_voltage_magnitude_series__angle_get_voltage_angle_series,true
0.74,-0.006814719113753192,-0.006814719113753192,Vmag_get_voltage_magnitude_series__angle_get_voltage_angle_series,true
0.75,-0.006898286855089149,-0.006898286855089149,Vmag_get_voltage_magnitude_series__angle_get_voltage_angle_series,true
0.76,-0.00697921585111816,-0.00697921585111816,Vmag_get_voltage_magnitude_series__angle_get_voltage_angle_series,true
0.77,-0.007057542994382242,-0.007057542994382242,Vmag_get_voltage_magnitude_series__angle_get_voltage_angle_series,true
0.78,-0.007133312936553727,-0.007133312936553727,Vmag_get_voltage_magnitude_series__angle_get_voltage_angle_series,true
0.79,-0.007206577748276188,-0.007206577748276188,Vmag_get_voltage_magnitude_series__angle_get_voltage_angle_series,true
0.8,-0.00727739614293931,-0.00727739614293931,Vmag_get_voltage_magnitude_series__angle_get_voltage_angle_series,true
0.81,-0.007345833279833955,-0.007345833279833955,Vmag_get_voltage_magnitude_series__angle_get_voltage_angle_series,true
0.82,-0.007411959971442539,-0.007411959971442539,Vmag_get_voltage_magnitude_series__angle_get_voltage_angle_series,true
0.83,-0.007475852286472853,-0.007475852286472853,Vmag_get_voltage_magnitude_series__angle_get_voltage_angle_series,true
0.84,-0.007537591005021344,-0.007537591005021344,Vmag_get_voltage_magnitude_series__angle_get_voltage_angle_series,true
0.85,-0.007597260890395321,-0.007597260890395321,Vmag_get_voltage_magnitude_series__angle_get_voltage_angle_series,true
0.86,-0.007654950435048289,-0.007654950435048289,Vmag_get_voltage_magnitude_series__angle_get_voltage_angle_series,true
0.87,-0.007710750949330176,-0.007710750949330176,Vmag_get_voltage_magnitude_series__angle_get_voltage_angle_series,true
0.88,-0.0077647562638139215,-0.0077647562638139215,Vmag_get_voltage_magnitude_series__angle_get_voltage_angle_series,true
0.89,-0.00781706208143909,-0.00781706208143909,Vmag_get_voltage_magnitude_series__angle_get_voltage_angle_series,true
0.9,-0.007867765330166218,-0.007867765330166218,Vmag_get_voltage_magnitude_series__angle_get_voltage_angle_series,true
0.91,-0.00791696385065934,-0.00791696385065934,Vmag_get_voltage_magnitude_series__angle_get_voltage_angle_series,true
0.92,-0.007964755609912971,-0.007964755609912971,Vmag_get_voltage_magnitude_series__angle_get_voltage_angle_series,true
0.93,-0.008011238391320006,-0.008011238391320006,Vmag_get_voltage_magnitude_series__angle_get_voltage_angle_series,true
0.94,-0.008056509200937659,-0.008056509200937659,Vmag_get_voltage_magnitude_series__angle_get_voltage_angle_series,true
0.95,-0.008100663771211472,-0.008100663771211472,Vmag_get_voltage_magnitude_series__angle_get_voltage_angle_series,true
0.96,-0.008143796254469761,-0.008143796254469761,Vmag_get_voltage_magnitude_series__angle_get_voltage_angle_series,true
0.97,-0.008185998573031128,-0.008185998573031128,Vmag_get_voltage_magnitude_series__angle_get_voltage_angle_series,true
0.98,-0.00822736022119323,-0.00822736022119323,Vmag_get_voltage_magnitude_series__angle_get_voltage_angle_series,true
0.99,-0.0082679677880571,-0.0082679677880571,Vmag_get_voltage_magnitude_series__angle_get_voltage_angle_series,true
1.0,-0.008307904616329508,-0.008307904616329508,Vmag_get_voltage_magnitude_series__angle_get_voltage_angle_series,true
1.01,-0.008347250565538509,-0.008347250565538509,Vmag_get_voltage_magnitude_series__angle_get_voltage_angle_series,true
1.02,-0.008386081597011114,-0.008386081597011114,Vmag_get_voltage_magnitude_series__angle_get_voltage_angle_series,true
1.03,-0.008424469692549414,-0.008424469692549414,Vmag_get_voltage_magnitude_series__angle_get_voltage_angle_series,true
1.04,-0.008462482503166838,-0.008462482503166838,Vmag_get_voltage_magnitude_series__angle_get_voltage_angle_series,true
1.05,-0.008500183236577932,-0.008500183236577932,Vmag_get_voltage_magnitude_series__angle_get_voltage_angle_series,true
1.06,-0.008537630505880012,-0.008537630505880012,Vmag_get_voltage_magnitude_series__angle_get_voltage_angle_series,true
1.07,-0.00857487817252255,-0.00857487817252255,Vmag_get_voltage_magnitude_series__angle_get_voltage_angle_series,true
1.08,-0.008611975351060888,-0.008611975351060888,Vmag_get_voltage_magnitude_series__angle_get_voltage_angle_series,true
1.09,-0.008648966254179718,-0.008648966254179718,Vmag_get_voltage_magnitude_series__angle_get_voltage_angle_series,true
1.1,-0.008685890266428662,-0.008685890266428662,Vmag_get_voltage_magnitude_series__angle_get_voltage_angle_series,true
1.11,-0.00872278192892492,-0.00872278192892492,Vmag_get_voltage_magnitude_series__angle_get_voltage_angle_series,true
1.12,-0.008759670930506244,-0.008759670930506244,Vmag_get_voltage_magnitude_series__angle_get_voltage_angle_series,true
1.13,-0.008796582298550413,-0.008796582298550413,Vmag_get_voltage_magnitude_series__angle_get_voltage_angle_series,true
1.14,-0.008833536371954115,-0.008833536371954115,Vmag_get_voltage_magnitude_series__angle_get_voltage_angle_series,true
1.15,-0.008870549007165995,-0.008870549007165995,Vmag_get_voltage_magnitude_series__angle_get_voltage_angle_series,true
1.16,-0.008907631704641109,-0.008907631704641109,Vmag_get_voltage_magnitude_series__angle_get_voltage_angle_series,true
1.17,-0.00894479175095175,-0.00894479175095175,Vmag_get_voltage_magnitude_series__angle_get_voltage_angle_series,true
1.18,-0.008982032476862028,-0.008982032476862028,Vmag_get_voltage_magnitude_series__angle_get_voltage_angle_series,true
1.19,-0.009019353366635612,-0.009019353366635612,Vmag_get_voltage_magnitude_series__angle_get_voltage_angle_series,true
1.2,-0.009056750384030279,-0.009056750384030279,Vmag_get_voltage_magnitude_series__angle_get_voltage_angle_series,true
1.21,-0.009094216143290177,-0.009094216143290177,Vmag_get_voltage_magnitude_series__angle_get_voltage_angle_series,true
1.22,-0.009131740158247024,-0.009131740158247024,Vmag_get_voltage_magnitude_series__angle_get_voltage_angle_series,true
1.23,-0.009169309178366425,-0.009169309178366425,Vmag_get_voltage_magnitude_series__angle_get_voltage_angle_series,true
1.24,-0.009206907324720421,-0.009206907324720421,Vmag_get_voltage_magnitude_series__angle_get_voltage_angle_series,true
1.25,-0.009244516492308105,-0.009244516492308105,Vmag_get_voltage_magnitude_series__angle_get_voltage_angle_series,true
1.26,-0.009282116546516731,-0.009282116546516731,Vmag_get_voltage_magnitude_series__angle_get_voltage_angle_series,true
1.27,-0.009319685611827083,-0.009319685611827083,Vmag_get_voltage_magnitude_series__angle_get_voltage_angle_series,true
1.28,-0.00935720040446246,-0.00935720040446246,Vmag_get_voltage_magnitude_series__angle_get_voltage_angle_series,true
1.29,-0.009394636400908088,-0.009394636400908088,Vmag_get_voltage_magnitude_series__angle_get_voltage_angle_series,true
1.3,-0.009431968234204417,-0.009431968234204417,Vmag_get_voltage_magnitude_series__angle_get_voltage_angle_series,true
1.31,-0.009469169850256563,-0.009469169850256563,Vmag_get_voltage_magnitude_series__angle_get_voltage_angle_series,true
1.32,-0.00950621483111733,-0.00950621483111733,Vmag_get_voltage_magnitude_series__angle_get_voltage_angle_series,true
1.33,-0.009543076641896853,-0.009543076641896853,Vmag_get_voltage_magnitude_series__angle_get_voltage_angle_series,true
1.34,-0.009579728809171843,-0.009579728809171843,Vmag_get_voltage_magnitude_series__angle_get_voltage_angle_series,true
1.35,-0.009616145248094786,-0.009616145248094786,Vmag_get_voltage_magnitude_series__angle_get_voltage_angle_series,true
1.36,-0.009652300378905215,-0.009652300378905215,Vmag_get_voltage_magnitude_series__angle_get_voltage_angle_series,true
1.37,-0.009688169396605958,-0.009688169396605958,Vmag_get_voltage_magnitude_series__angle_get_voltage_angle_series,true
1.38,-0.009723728434242166,-0.009723728434242166,Vmag_get_voltage_magnitude_series__angle_get_voltage_angle_series,true
1.39,-0.009758954714132672,-0.009758954714132672,Vmag_get_voltage_magnitude_series__angle_get_voltage_angle_series,true
1.4,-0.009793826754474965,-0.009793826754474965,Vmag_get_voltage_magnitude_series__angle_get_voltage_angle_series,true
1.41,-0.009828324455608004,-0.009828324455608004,Vmag_get_voltage_magnitude_series__angle_get_voltage_angle_series,true
1.42,-0.009862429262608137,-0.009862429262608137,Vmag_get_voltage_magnitude_series__angle_get_voltage_angle_series,true
1.43,-0.009896124248637277,-0.009896124248637277,Vmag_get_voltage_magnitude_series__angle_get_voltage_angle_series,true
1.44,-0.009929394209330417,-0.009929394209330417,Vmag_get_voltage_magnitude_series__angle_get_voltage_angle_series,true
1.45,-0.009962225750095161,-0.009962225750095161,Vmag_get_voltage_magnitude_series__angle_get_voltage_angle_series,true
1.46,-0.009994607310135862,-0.009994607310135862,Vmag_get_voltage_magnitude_series__angle_get_voltage_angle_series,true
1.47,-0.010026529232575713,-0.010026529232575713,Vmag_get_voltage_magnitude_series__angle_get_voltage_angle_series,true
1.48,-0.010057983775029101,-0.010057983775029101,Vmag_get_voltage_magnitude_series__angle_get_voltage_angle_series,true
1.49,-0.0100889650936082,-0.0100889650936082,Vmag_get_voltage_magnitude_series__angle_get_voltage_angle_series,true
1.5,-0.010119469290973918,-0.010119469290973918,Vmag_get_voltage_magnitude_series__angle_get_voltage_angle_series,true
1.51,-0.010149494321002326,-0.010149494321002326,Vmag_get_voltage_magnitude_series__angle_get_voltage_angle_series,true
1.52,-0.010179040015526122,-0.010179040015526122,Vmag_get_voltage_magnitude_series__angle_get_voltage_angle_series,true
1.53,-0.010208107991252382,-0.010208107991252382,Vmag_get_voltage_magnitude_series__angle_get_voltage_angle_series,true
1.54,-0.010236701605917525,-0.010236701605917525,Vmag_get_voltage_magnitude_series__angle_get_voltage_angle_series,true
1.55,-0.010264825900274822,-0.010264825900274822,Vmag_get_voltage_magnitude_series__angle_get_voltage_angle_series,true
1.56,-0.010292487460283058,-0.010292487460283058,Vmag_get_voltage_magnitude_series__angle_get_voltage_angle_series,true
1.57,-0.010319694400426242,-0.010319694400426242,Vmag_get_voltage_magnitude_series__angle_get_voltage_angle_series,true
1.58,-0.010346456200977617,-0.010346456200977617,Vmag_get_voltage_magnitude_series__angle_get_voltage_angle_series,true
1.59,-0.010372783626975694,-0.010372783626975694,Vmag_get_voltage_magnitude_series__angle_get_voltage_angle_series,true
1.6,-0.010398688620868412,-0.010398688620868412,Vmag_get_voltage_magnitude_series__angle_get_voltage_angle_series,true
1.61,-0.010424184154191237,-0.010424184154191237,Vmag_get_voltage_magnitude_series__angle_get_voltage_angle_series,true
1.62,-0.010449284151805807,-0.010449284151805807,Vmag_get_voltage_magnitude_series__angle_get_voltage_angle_series,true
1.63,-0.010474003316075986,-0.010474003316075986,Vmag_get_voltage_magnitude_series__angle_get_voltage_angle_series,true
1.64,-0.010498357038389096,-0.010498357038389096,Vmag_get_voltage_magnitude_series__angle_get_voltage_angle_series,true
1.65,-0.010522361265226158,-0.010522361265226158,Vmag_get_voltage_magnitude_series__angle_get_voltage_angle_series,true
1.66,-0.010546032339397089,-0.010546032339397089,Vmag_get_voltage_magnitude_series__angle_get_voltage_angle_series,true
1.67,-0.010569386934144467,-0.010569386934144467,Vmag_get_voltage_magnitude_series__angle_get_voltage_angle_series,true
1.68,-0.010592441871633397,-0.010592441871633397,Vmag_get_voltage_magnitude_series__angle_get_voltage_angle_series,true
1.69,-0.010615214042132491,-0.010615214042132491,Vmag_get_voltage_magnitude_series__angle_get_voltage_angle_series,true
1.7,-0.01063772027121227,-0.01063772027121227,Vmag_get_voltage_magnitude_series__angle_get_voltage_angle_series,true
1.71,-0.010659977206544272,-0.010659977206544272,Vmag_get_voltage_magnitude_series__angle_get_voltage_angle_series,true
1.72,-0.010682001232779167,-0.010682001232779167,Vmag_get_voltage_magnitude_series__angle_get_voltage_angle_series,true
1.73,-0.010703808338330302,-0.010703808338330302,Vmag_get_voltage_magnitude_series__angle_get_voltage_angle_series,true
1.74,-0.010725414054852032,-0.010725414054852032,Vmag_get_voltage_magnitude_series__angle_get_voltage_angle_series,true
1.75,-0.010746833350894672,-0.010746833350894672,Vmag_get_voltage_magnitude_series__angle_get_voltage_angle_series,true
1.76,-0.01076808055851669,-0.01076808055851669,Vmag_get_voltage_magnitude_series__angle_get_voltage_angle_series,true
1.77,-0.0107891693074295,-0.0107891693074295,Vmag_get_voltage_magnitude_series__angle_get_voltage_angle_series,true
1.78,-0.010810112447107442,-0.010810112447107442,Vmag_get_voltage_magnitude_series__angle_get_voltage_angle_series,true
1.79,-0.010830922012840695,-0.010830922012840695,Vmag_get_voltage_magnitude_series__angle_get_voltage_angle_series,true
1.8,-0.01085160915879487,-0.01085160915879487,Vmag_get_voltage_magnitude_series__angle_get_voltage_angle_series,true
1.81,-0.010872184128864117,-0.010872184128864117,Vmag_get_voltage_magnitude_series__angle_get_voltage_angle_series,true
1.82,-0.010892656229177615,-0.010892656229177615,Vmag_get_voltage_magnitude_series__angle_get_voltage_angle_series,true
1.83,-0.010913033794663905,-0.010913033794663905,Vmag_get_voltage_magnitude_series__angle_get_voltage_angle_series,true
1.84,-0.010933324189727823,-0.010933324189727823,Vmag_get_voltage_magnitude_series__angle_get_voltage_angle_series,true
1.85,-0.010953533785524196,-0.010953533785524196,Vmag_get_voltage_magnitude_series__angle_get_voltage_angle_series,true
1.86,-0.010973667973946772,-0.010973667973946772,Vmag_get_voltage_magnitude_series__angle_get_voltage_angle_series,true
1.87,-0.010993731172894552,-0.010993731172894552,Vmag_get_voltage_magnitude_series__angle_get_voltage_angle_series,true
1.88,-0.011013726831118866,-0.011013726831118866,Vmag_get_voltage_magnitude_series__angle_get_voltage_angle_series,true
1.89,-0.011033657470473846,-0.011033657470473846,Vmag_get_voltage_magnitude_series__angle_get_voltage_angle_series,true
1.9,-0.011053524692305975,-0.011053524692305975,Vmag_get_voltage_magnitude_series__angle_get_voltage_angle_series,true
1.91,-0.011073329225275949,-0.011073329225275949,Vmag_get_voltage_magnitude_series__angle_get_voltage_angle_series,true
1.92,-0.011093070959374562,-0.011093070959374562,Vmag_get_voltage_magnitude_series__angle_get_voltage_angle_series,true
1.93,-0.011112748985854074,-0.011112748985854074,Vmag_get_voltage_magnitude_series__angle_get_voltage_angle_series,true
1.94,-0.011132361654531011,-0.011132361654531011,Vmag_get_voltage_magnitude_series__angle_get_voltage_angle_series,true
1.95,-0.011151906610516411,-0.011151906610516411,Vmag_get_voltage_magnitude_series__angle_get_voltage_angle_series,true
1.96,-0.011171380863701046,-0.011171380863701046,Vmag_get_voltage_magnitude_series__angle_get_voltage_angle_series,true
1.97,-0.011190780835420543,-0.011190780835420543,Vmag_get_voltage_magnitude_series__angle_get_voltage_angle_series,true
1.98,-0.011210102417623808,-0.011210102417623808,Vmag_get_voltage_magnitude_series__angle_get_voltage_angle_series,true
1.99,-0.011229341044632328,-0.011229341044632328,Vmag_get_voltage_magnitude_series__angle_get_voltage_angle_series,true
...
